<?xml version='1.0' encoding='UTF-8'?>
<edges xmlns:xsi="http://www.w3.org/2001/XMLSchema-instance" xsi:noNamespaceSchemaLocation="http://sumo.dlr.de/xsd/edges_file.xsd">
  <edge id="bottom" type="edgeType" from="bottom" to="right" length="90.5" shape="0.00,-57.61 2.32,-57.57 4.64,-57.43 6.94,-57.19 9.24,-56.87 11.52,-56.45 13.79,-55.94 16.03,-55.34 18.24,-54.65 20.43,-53.87 22.58,-53.00 24.70,-52.05 26.77,-51.01 28.81,-49.90 30.79,-48.69 32.73,-47.42 34.61,-46.06 36.44,-44.63 38.21,-43.12 39.91,-41.55 41.55,-39.91 43.12,-38.21 44.63,-36.44 46.06,-34.61 47.42,-32.73 48.69,-30.79 49.90,-28.81 51.01,-26.77 52.05,-24.70 53.00,-22.58 53.87,-20.43 54.65,-18.24 55.34,-16.03 55.94,-13.79 56.45,-11.52 56.87,-9.24 57.19,-6.94 57.43,-4.64 57.57,-2.32 57.61,0.00"/>
  <edge id="right" type="edgeType" from="right" to="top" length="90.5" shape="57.61,0.00 57.57,2.32 57.43,4.64 57.19,6.94 56.87,9.24 56.45,11.52 55.94,13.79 55.34,16.03 54.65,18.24 53.87,20.43 53.00,22.58 52.05,24.70 51.01,26.77 49.90,28.81 48.69,30.79 47.42,32.73 46.06,34.61 44.63,36.44 43.12,38.21 41.55,39.91 39.91,41.55 38.21,43.12 36.44,44.63 34.61,46.06 32.73,47.42 30.79,48.69 28.81,49.90 26.77,51.01 24.70,52.05 22.58,53.00 20.43,53.87 18.24,54.65 16.03,55.34 13.79,55.94 11.52,56.45 9.24,56.87 6.94,57.19 4.64,57.43 2.32,57.57 0.00,57.61"/>
  <edge id="top" type="edgeType" from="top" to="left" length="90.5" shape="0.00,57.61 -2.32,57.57 -4.64,57.43 -6.94,57.19 -9.24,56.87 -11.52,56.45 -13.79,55.94 -16.03,55.34 -18.24,54.65 -20.43,53.87 -22.58,53.00 -24.70,52.05 -26.77,51.01 -28.81,49.90 -30.79,48.69 -32.73,47.42 -34.61,46.06 -36.44,44.63 -38.21,43.12 -39.91,41.55 -41.55,39.91 -43.12,38.21 -44.63,36.44 -46.06,34.61 -47.42,32.73 -48.69,30.79 -49.90,28.81 -51.01,26.77 -52.05,24.70 -53.00,22.58 -53.87,20.43 -54.65,18.24 -55.34,16.03 -55.94,13.79 -56.45,11.52 -56.87,9.24 -57.19,6.94 -57.43,4.64 -57.57,2.32 -57.61,0.00"/>
  <edge id="left" type="edgeType" from="left" to="bottom" length="90.5" shape="-57.61,0.00 -57.57,-2.32 -57.43,-4.64 -57.19,-6.94 -56.87,-9.24 -56.45,-11.52 -55.94,-13.79 -55.34,-16.03 -54.65,-18.24 -53.87,-20.43 -53.00,-22.58 -52.05,-24.70 -51.01,-26.77 -49.90,-28.81 -48.69,-30.79 -47.42,-32.73 -46.06,-34.61 -44.63,-36.44 -43.12,-38.21 -41.55,-39.91 -39.91,-41.55 -38.21,-43.12 -36.44,-44.63 -34.61,-46.06 -32.73,-47.42 -30.79,-48.69 -28.81,-49.90 -26.77,-51.01 -24.70,-52.05 -22.58,-53.00 -20.43,-53.87 -18.24,-54.65 -16.03,-55.34 -13.79,-55.94 -11.52,-56.45 -9.24,-56.87 -6.94,-57.19 -4.64,-57.43 -2.32,-57.57 -0.00,-57.61"/>
</edges>
