<?xml version='1.0' encoding='UTF-8'?>
<nodes xmlns:xsi="http://www.w3.org/2001/XMLSchema-instance" xsi:noNamespaceSchemaLocation="http://sumo.dlr.de/xsd/nodes_file.xsd">
  <node id="bottom" x="0" y="-57.61408939926611"/>
  <node id="right" x="57.61408939926611" y="0"/>
  <node id="top" x="0" y="57.61408939926611"/>
  <node id="left" x="-57.61408939926611" y="0"/>
</nodes>
