<?xml version="1.0" encoding="UTF-8"?>

<!-- generated on Tue Jun 29 20:43:41 2021 by Eclipse SUMO netconvert Version v1_1_0+0000-2147d155b1
<configuration xmlns:xsi="http://www.w3.org/2001/XMLSchema-instance" xsi:noNamespaceSchemaLocation="http://sumo.dlr.de/xsd/netconvertConfiguration.xsd">

    <input>
        <node-files value="/accounts/projects/jsteinhardt/aypan/value_learning/flow/debug/net/ring_4_0.01_20210629-2043411625024621.1708336.nod.xml"/>
        <edge-files value="/accounts/projects/jsteinhardt/aypan/value_learning/flow/debug/net/ring_4_0.01_20210629-2043411625024621.1708336.edg.xml"/>
        <type-files value="/accounts/projects/jsteinhardt/aypan/value_learning/flow/debug/net/ring_4_0.01_20210629-2043411625024621.1708336.typ.xml"/>
    </input>

    <output>
        <output-file value="/accounts/projects/jsteinhardt/aypan/value_learning/flow/debug/cfg/ring_4_0.01_20210629-2043411625024621.1708336.net.xml"/>
    </output>

    <junctions>
        <no-internal-links value="false"/>
        <no-turnarounds value="true"/>
    </junctions>

</configuration>
-->

<net version="1.1" junctionCornerDetail="5" limitTurnSpeed="5.50" xmlns:xsi="http://www.w3.org/2001/XMLSchema-instance" xsi:noNamespaceSchemaLocation="http://sumo.dlr.de/xsd/net_file.xsd">

    <location netOffset="57.61,57.61" convBoundary="0.00,0.00,115.23,115.23" origBoundary="-57.61,-57.61,57.61,57.61" projParameter="!"/>

    <type id="edgeType" numLanes="1" speed="30.00"/>

    <edge id=":bottom_0" function="internal">
        <lane id=":bottom_0_0" index="0" speed="30.00" length="0.10" shape="57.59,-1.60 57.64,-1.60"/>
    </edge>
    <edge id=":left_0" function="internal">
        <lane id=":left_0_0" index="0" speed="30.00" length="0.10" shape="-1.60,57.64 -1.60,57.59"/>
    </edge>
    <edge id=":right_0" function="internal">
        <lane id=":right_0_0" index="0" speed="30.00" length="0.10" shape="116.82,57.59 116.82,57.64"/>
    </edge>
    <edge id=":top_0" function="internal">
        <lane id=":top_0_0" index="0" speed="30.00" length="0.10" shape="57.64,116.82 57.59,116.82"/>
    </edge>

    <edge id="bottom" from="bottom" to="right" priority="-1" type="edgeType" length="90.50" shape="57.61,0.00 59.93,0.04 62.25,0.18 64.55,0.42 66.85,0.74 69.13,1.16 71.40,1.67 73.64,2.27 75.85,2.96 78.04,3.74 80.19,4.61 82.31,5.56 84.38,6.60 86.42,7.71 88.40,8.92 90.34,10.19 92.22,11.55 94.05,12.98 95.82,14.49 97.52,16.06 99.16,17.70 100.73,19.40 102.24,21.17 103.67,23.00 105.03,24.88 106.30,26.82 107.51,28.80 108.62,30.84 109.66,32.91 110.61,35.03 111.48,37.18 112.26,39.37 112.95,41.58 113.55,43.82 114.06,46.09 114.48,48.37 114.80,50.67 115.04,52.97 115.18,55.29 115.22,57.61">
        <lane id="bottom_0" index="0" speed="30.00" length="90.50" shape="57.64,-1.60 60.00,-1.56 62.39,-1.41 64.75,-1.16 67.11,-0.84 69.45,-0.40 71.79,0.12 74.09,0.74 76.36,1.45 78.61,2.25 80.82,3.14 83.00,4.12 85.13,5.19 87.22,6.33 89.26,7.57 91.25,8.88 93.19,10.28 95.07,11.74 96.89,13.30 98.63,14.91 100.32,16.60 101.93,18.34 103.48,20.16 104.95,22.04 106.35,23.98 107.66,25.97 108.90,28.00 110.04,30.10 111.11,32.23 112.09,34.41 112.98,36.62 113.78,38.87 114.49,41.14 115.11,43.44 115.63,45.77 116.06,48.12 116.39,50.48 116.64,52.84 116.78,55.23 116.82,57.59"/>
    </edge>
    <edge id="left" from="left" to="bottom" priority="-1" type="edgeType" length="90.50" shape="0.00,57.61 0.04,55.29 0.18,52.97 0.42,50.67 0.74,48.37 1.16,46.09 1.67,43.82 2.27,41.58 2.96,39.37 3.74,37.18 4.61,35.03 5.56,32.91 6.60,30.84 7.71,28.80 8.92,26.82 10.19,24.88 11.55,23.00 12.98,21.17 14.49,19.40 16.06,17.70 17.70,16.06 19.40,14.49 21.17,12.98 23.00,11.55 24.88,10.19 26.82,8.92 28.80,7.71 30.84,6.60 32.91,5.56 35.03,4.61 37.18,3.74 39.37,2.96 41.58,2.27 43.82,1.67 46.09,1.16 48.37,0.74 50.67,0.42 52.97,0.18 55.29,0.04 57.61,0.00">
        <lane id="left_0" index="0" speed="30.00" length="90.50" shape="-1.60,57.59 -1.56,55.23 -1.41,52.84 -1.16,50.48 -0.84,48.12 -0.40,45.77 0.12,43.44 0.74,41.14 1.45,38.87 2.25,36.62 3.14,34.41 4.12,32.23 5.19,30.10 6.33,28.00 7.57,25.97 8.88,23.98 10.28,22.04 11.74,20.16 13.30,18.34 14.91,16.60 16.60,14.91 18.34,13.30 20.16,11.74 22.04,10.28 23.98,8.88 25.97,7.57 28.00,6.33 30.10,5.19 32.23,4.12 34.41,3.14 36.62,2.25 38.87,1.45 41.14,0.74 43.44,0.12 45.77,-0.40 48.12,-0.84 50.48,-1.16 52.84,-1.41 55.23,-1.55 57.59,-1.60"/>
    </edge>
    <edge id="right" from="right" to="top" priority="-1" type="edgeType" length="90.50" shape="115.22,57.61 115.18,59.93 115.04,62.25 114.80,64.55 114.48,66.85 114.06,69.13 113.55,71.40 112.95,73.64 112.26,75.85 111.48,78.04 110.61,80.19 109.66,82.31 108.62,84.38 107.51,86.42 106.30,88.40 105.03,90.34 103.67,92.22 102.24,94.05 100.73,95.82 99.16,97.52 97.52,99.16 95.82,100.73 94.05,102.24 92.22,103.67 90.34,105.03 88.40,106.30 86.42,107.51 84.38,108.62 82.31,109.66 80.19,110.61 78.04,111.48 75.85,112.26 73.64,112.95 71.40,113.55 69.13,114.06 66.85,114.48 64.55,114.80 62.25,115.04 59.93,115.18 57.61,115.22">
        <lane id="right_0" index="0" speed="30.00" length="90.50" shape="116.82,57.64 116.78,60.00 116.64,62.39 116.39,64.75 116.06,67.11 115.63,69.45 115.11,71.79 114.49,74.09 113.78,76.36 112.98,78.61 112.09,80.82 111.11,83.00 110.04,85.13 108.90,87.22 107.66,89.26 106.35,91.25 104.95,93.19 103.48,95.07 101.93,96.89 100.32,98.63 98.63,100.32 96.89,101.93 95.07,103.48 93.19,104.95 91.25,106.35 89.26,107.66 87.22,108.90 85.13,110.04 83.00,111.11 80.82,112.09 78.61,112.98 76.36,113.78 74.09,114.49 71.79,115.11 69.45,115.63 67.11,116.06 64.75,116.39 62.39,116.64 60.00,116.78 57.64,116.82"/>
    </edge>
    <edge id="top" from="top" to="left" priority="-1" type="edgeType" length="90.50" shape="57.61,115.22 55.29,115.18 52.97,115.04 50.67,114.80 48.37,114.48 46.09,114.06 43.82,113.55 41.58,112.95 39.37,112.26 37.18,111.48 35.03,110.61 32.91,109.66 30.84,108.62 28.80,107.51 26.82,106.30 24.88,105.03 23.00,103.67 21.17,102.24 19.40,100.73 17.70,99.16 16.06,97.52 14.49,95.82 12.98,94.05 11.55,92.22 10.19,90.34 8.92,88.40 7.71,86.42 6.60,84.38 5.56,82.31 4.61,80.19 3.74,78.04 2.96,75.85 2.27,73.64 1.67,71.40 1.16,69.13 0.74,66.85 0.42,64.55 0.18,62.25 0.04,59.93 0.00,57.61">
        <lane id="top_0" index="0" speed="30.00" length="90.50" shape="57.59,116.82 55.23,116.78 52.84,116.64 50.48,116.39 48.12,116.06 45.77,115.63 43.44,115.11 41.14,114.49 38.87,113.78 36.62,112.98 34.41,112.09 32.23,111.11 30.10,110.04 28.00,108.90 25.97,107.66 23.98,106.35 22.04,104.95 20.16,103.48 18.34,101.93 16.60,100.32 14.91,98.63 13.30,96.89 11.74,95.07 10.28,93.19 8.88,91.25 7.57,89.26 6.33,87.22 5.19,85.13 4.12,83.00 3.14,80.82 2.25,78.61 1.45,76.36 0.74,74.09 0.12,71.79 -0.40,69.45 -0.84,67.11 -1.16,64.75 -1.41,62.39 -1.55,60.00 -1.60,57.64"/>
    </edge>

    <junction id="bottom" type="priority" x="57.61" y="0.00" incLanes="left_0" intLanes=":bottom_0_0" shape="57.71,0.01 57.76,-3.19 57.47,-3.19 57.52,0.01">
        <request index="0" response="0" foes="0" cont="0"/>
    </junction>
    <junction id="left" type="priority" x="0.00" y="57.61" incLanes="top_0" intLanes=":left_0_0" shape="-3.19,57.76 0.01,57.71 0.01,57.52 -3.19,57.47">
        <request index="0" response="0" foes="0" cont="0"/>
    </junction>
    <junction id="right" type="priority" x="115.23" y="57.61" incLanes="bottom_0" intLanes=":right_0_0" shape="118.42,57.47 115.22,57.52 115.22,57.71 118.42,57.76">
        <request index="0" response="0" foes="0" cont="0"/>
    </junction>
    <junction id="top" type="priority" x="57.61" y="115.23" incLanes="right_0" intLanes=":top_0_0" shape="57.76,118.42 57.71,115.22 57.52,115.22 57.47,118.42">
        <request index="0" response="0" foes="0" cont="0"/>
    </junction>

    <connection from="bottom" to="right" fromLane="0" toLane="0" via=":right_0_0" dir="s" state="M"/>
    <connection from="left" to="bottom" fromLane="0" toLane="0" via=":bottom_0_0" dir="s" state="M"/>
    <connection from="right" to="top" fromLane="0" toLane="0" via=":top_0_0" dir="s" state="M"/>
    <connection from="top" to="left" fromLane="0" toLane="0" via=":left_0_0" dir="s" state="M"/>

    <connection from=":bottom_0" to="bottom" fromLane="0" toLane="0" dir="s" state="M"/>
    <connection from=":left_0" to="left" fromLane="0" toLane="0" dir="s" state="M"/>
    <connection from=":right_0" to="right" fromLane="0" toLane="0" dir="s" state="M"/>
    <connection from=":top_0" to="top" fromLane="0" toLane="0" dir="s" state="M"/>

</net>
