<?xml version='1.0' encoding='UTF-8'?>
<configuration xmlns:xsi="http://www.w3.org/2001/XMLSchema-instance" xsi:noNamespaceSchemaLocation="http://sumo.dlr.de/xsd/sumoConfiguration.xsd">
  <input>
    <net-file value="ring_4_0.01_20210629-2043411625024621.1708336.net.xml"/>
    <route-files value="ring_4_0.01_20210629-2043411625024621.1708336.rou.xml"/>
    <additional-files value="ring_4_0.01_20210629-2043411625024621.1708336.add.xml"/>
    <gui-settings-file value="ring_4_0.01_20210629-2043411625024621.1708336.gui.cfg"/>
  </input>
  <time>
    <begin value="0"/>
  </time>
</configuration>
