<?xml version='1.0' encoding='UTF-8'?>
<configuration xmlns:xsi="http://www.w3.org/2001/XMLSchema-instance" xsi:noNamespaceSchemaLocation="http://sumo.dlr.de/xsd/sumoConfiguration.xsd">
  <input>
    <net-file value="s_merge_last_20210704-1958351625453915.4990108.net.xml"/>
    <route-files value="s_merge_last_20210704-1958351625453915.4990108.rou.xml"/>
    <additional-files value="s_merge_last_20210704-1958351625453915.4990108.add.xml"/>
    <gui-settings-file value="s_merge_last_20210704-1958351625453915.4990108.gui.cfg"/>
  </input>
  <time>
    <begin value="0"/>
  </time>
</configuration>
