<?xml version='1.0' encoding='UTF-8'?>
<configuration xmlns:xsi="http://www.w3.org/2001/XMLSchema-instance" xsi:noNamespaceSchemaLocation="http://sumo.dlr.de/xsd/sumoConfiguration.xsd">
  <input>
    <net-file value="s_merge_local_20210702-1606211625267181.8954.net.xml"/>
    <route-files value="s_merge_local_20210702-1606211625267181.8954.rou.xml"/>
    <additional-files value="s_merge_local_20210702-1606211625267181.8954.add.xml"/>
    <gui-settings-file value="s_merge_local_20210702-1606211625267181.8954.gui.cfg"/>
  </input>
  <time>
    <begin value="0"/>
  </time>
</configuration>
